VERSION 17
*******************************************************************************
*** TRNSYS input file (deck) generated by TrnsysStudio
*** on Tuesday, October 15, 2024 at 11:12
*** from TrnsysStudio project: C:\Trnsys17\MyProjects\Sentry Hall GSHP\GSHP_SentryHall_000.tpf
*** 
*** If you edit this file, use the File/Import TRNSYS Input File function in 
*** TrnsysStudio to update the project. 
*** 
*** If you have problems, questions or suggestions please contact your local 
*** TRNSYS distributor or mailto:software@cstb.fr 
*** 
*******************************************************************************


*******************************************************************************
*** Units 
*******************************************************************************

*******************************************************************************
*** Control cards
*******************************************************************************
* START, STOP and STEP
CONSTANTS 3
START=0
STOP=8760
STEP=timestep
SIMULATION 	 START	 STOP	 STEP	! Start time	End time	Time step
TOLERANCES 0.0001 0.0001			! Integration	 Convergence
LIMITS 50 5000 50				! Max iterations	Max warnings	Trace limit
DFQ 1					! TRNSYS numerical integration solver method
WIDTH 120				! TRNSYS output file width, number of characters
LIST 					! NOLIST statement
					! MAP statement
SOLVER 0 1 1				! Solver statement	Minimum relaxation factor	Maximum relaxation factor
NAN_CHECK 0				! Nan DEBUG statement
OVERWRITE_CHECK 0			! Overwrite DEBUG statement
TIME_REPORT 0			! disable time report
EQSOLVER 0				! EQUATION SOLVER statement
* User defined CONSTANTS 
Equations 1
timestep=6/60

* EQUATIONS "COMPONENT SWITCHES"
* 
EQUATIONS 5
boiler_switch = 1 ! 0=OFF ; 1=ON
cooler_switch = 0 ! 0=OFF ; 1=ON
chiller_switch = 0 ! 0=OFF ; 1=ON
CT_switch = 0 ! 0=OFF ; 1=ON
Geo_switch = 1 ! 0=OFF ; 1=ON
*$UNIT_NAME COMPONENT SWITCHES
*$LAYER Main
*$POSITION 123 177

*------------------------------------------------------------------------------


* EQUATIONS "BHE CALC"
* 
EQUATIONS 23
sim_years = 5
n_bhe = 40 ! number of borehole heat exchangers
spacing = 15/3.28  ! m
depth = 500/3.28 ! m
stgvol = 3.14159 * n_bhe * depth * (0.5642 * spacing) * (0.5642 * spacing)   ! m^3
brfr = 8 * 60 * rho_fluid / 264.17   ! kg/hr
k_soil = 1.46 * 1.7295772056 * 3.6  ! kJ/hr.m.K
k_fill = 0.88 * 1.7295772056 * 3.6  ! kJ/hr.m.K
cp_soil = 1.0   ! leave as one
rho_soil = k_soil * 258.334/( 1.01 )/cp_soil  ! Insert Thermal Diffusivity - Alpha [ft^2/day] into parenthesis - kg/m^3
rhocp_soil = cp_soil * rho_soil
t_ground = 11.7
rad_bore = 6.0 / (2 * 39.37007874)  ! m
sdr = 11   !  hdpe pipe diameter ratio
do_pipe = 1.25 / 39.37007874   ! m
di_pipe = do_pipe * (sdr-2) / sdr    ! m
ro_pipe = do_pipe / 2    ! m
ri_pipe = di_pipe / 2   ! m
width_gap = (2 * rad_bore - 2 * do_pipe) / 3    ! m
half_gap = 0.010
shank_spacing = ro_pipe + half_gap   ! m
length_hdpe = depth * 2   ! m
hzcasing_do = 2*hzpipe_do+.01
*$UNIT_NAME BHE CALC
*$LAYER Main
*$POSITION 123 639

*------------------------------------------------------------------------------


* EQUATIONS "FLUID CALC"
* 
EQUATIONS 9
rho_fluid = 1015  ! kg/m^3
cp_fluid = 4.021   ! kJ/kg*K
hzpipe_length = 12*n_bhe / 3.28  ! m
hzpipe_di = hzpipe_do * (sdr_header-2) / sdr_header  ! m
hzpipe_do = 8.625 / 39.37  ! m
sdr_header = 15.5 ! standard diameter ratio for horizontal and interior pipes
hzpipe_area = 3.14159 * hzpipe_di * hzpipe_di / 4
capghex_length = max(1.1 * (brfr*n_bhe*timestep/(rho_fluid*1) - 2*hzpipe_area*hzpipe_length),1)
caphp_length = 1.1 * (m_max*timestep/(rho_fluid*1))
*$UNIT_NAME FLUID CALC
*$LAYER Main
*$POSITION 123 562

*------------------------------------------------------------------------------


* EQUATIONS "BOILER CALC"
* 
EQUATIONS 5
eff_boiler = 0.84 * Geo_switch + 0.840 * (1- Geo_switch)  ! boiler efficiency
capacity_boiler = 2200 * 1055.0558526  ! Rated Input Capacity: MBH --> kJ/hr
m_boiler_rated = 15 * 60 * rho_fluid / 264.17   ! gpm --> kg/hr
p_boiler_rated = (1/6) * 2684.5195377  ! (hp) --> kJ/hr
tset_boiler = 0 * boiler_switch - (1 - boiler_switch) * 999 ! boiler setpoint, [C]
*$UNIT_NAME BOILER CALC
*$LAYER Main
*$POSITION 123 254

*------------------------------------------------------------------------------


* EQUATIONS "CT CALC"
* 
EQUATIONS 10
m_ct_design = 75 * 60 * rho_fluid / 264.17   ! gpm --> kg/hr
p_ct_design = (1.00+1.16) * 2684.5195377  ! (hp) --> kJ/hr
m_ctfan_design = CT_switch * 5945 * (1.2 * 60 / 35.314666721) + (1-CT_switch) * 9999999 ! cfm --> kg/hr
p_ctfan_design = 5.0 * 2684.5195377  ! (hp) --> kJ/hr
tset_ctpid = 32.22 * CT_switch + (1 - CT_switch) * 999 ! CT setpoint, [C]
tset_cton = tset_ctpid - 2.78
T_in_design = ((105)-32) * 5/9  ! (F) --> C
T_out_design = ((95)-32) * 5/9  ! (F) --> C
T_db_design = ((86)-32) * 5/9  ! (F) --> C
T_wb_design = ((78)-32) * 5/9  ! (F) --> C
*$UNIT_NAME CT CALC
*$LAYER Main
*$POSITION 123 333

*------------------------------------------------------------------------------


* Model "WEATHER" (Type 15)
* 

UNIT 63 TYPE 15	 WEATHER
*$UNIT_NAME WEATHER
*$MODEL .\Weather Data Reading and Processing\Standard Format\Energy+ Weather Files (EPW)\Type15-3.tmf
*$POSITION 126 56
*$LAYER Main # 
PARAMETERS 9
3		! 1 File Type
293		! 2 Logical unit
3		! 3 Tilted Surface Radiation Mode
0.2		! 4 Ground reflectance - no snow
0.7		! 5 Ground reflectance - snow cover
1		! 6 Number of surfaces
1		! 7 Tracking mode
0		! 8 Slope of surface
0		! 9 Azimuth of surface
*** External files
ASSIGN "C:\Trnsys17\Weather\Energy+\USA_WI_Green.Bay-Straubel.Intl.AP.726450_TMY3.epw" 293
*|? Which file contains the Energy+ weather data? |1000
*------------------------------------------------------------------------------

* EQUATIONS "CHILLER CALC"
* 
EQUATIONS 3
eff_chiller = 3.48  ! rated chiller COP
tset_chiller = 32.22 * chiller_switch + (1 - chiller_switch) * 999 ! boiler setpoint, [C]
capacity_chiller = (100) * 12660.670231 ! (tons) to kJ/hr
*$UNIT_NAME CHILLER CALC
*$LAYER Main
*$POSITION 123 405

*------------------------------------------------------------------------------


* EQUATIONS "CT SIZING CALC"
* 
EQUATIONS 4
eff_cooler = 0.933 * Geo_switch + 0.840 * (1- Geo_switch)    ! cooler efficiency, not used
capacity_cooler = 9999999999 ! 100 * 12660.67  ! tons --> kJ/hr
m_cooler_rated = 15 * 60 * rho_fluid / 264.17   ! gpm --> kg/hr
tset_cooler = 32.22 * cooler_switch + (1 - cooler_switch) * 999 ! cooler setpoint, [C]
*$UNIT_NAME CT SIZING CALC
*$LAYER Main
*$POSITION 123 485

*------------------------------------------------------------------------------


* EQUATIONS "HP INLET CONDITIONS"
* 
EQUATIONS 14
hp_air_lps = 269  ! arbitrary value
hp_ref_lps = 4 / 15.850323141  ! arbitrary value
hp_ref_flow = hp_ref_lps * 3.6 * rho_fluid  ! kg/hr
tzone_cool = 23.9
tzone_heat = 18.3
rhzone_cool = 50
rhzone_heat = 50
avgcoolCOP = 4.18  ! weighted average for all heat pumps
avgheatCOP = 3.90  ! weighted average for all heat pumps
capcool = 18242  ! arbitrary value
capheat = 17887  ! arbitrary value
powcool = capcool / avgcoolCOP
powheat = capheat / avgheatCOP
capsens = 0.80 * capcool
*$UNIT_NAME HP INLET CONDITIONS
*$LAYER Main
*$POSITION 347 136

*------------------------------------------------------------------------------


* EQUATIONS "EFFICIENCY"
* 
EQUATIONS 17
Qcool_kJ = [84,2]  * 1055.0558526  ! kJ
Qheat_kJ = [84,3]  * 1055.0558526  ! kJ
Pcool = Qcool_kJ / max([42,17], 1)
Pheat = Qheat_kJ / max([45,17], 1)
HR = Pcool + Qcool_kJ
HA = Pheat - Qheat_kJ
m_cool = HR / (cp_fluid * dTcool * timestep)
m_heat = (0 - HA) / (cp_fluid * dTheat * timestep)
dTcool = Qcmax * (5/4) / (cp_fluid * m_max)
dTheat = Qhmax * (3/4) / (cp_fluid * m_max)
Qcmax = 15000 * 1055.0558526  ! kJ
Qhmax = 15000 * 1055.0558526  ! kJ
m_max = 300 * rho_fluid * 60 / 264.17205236   ! kg/hr
m_total = max(m_cool + m_heat, 0.01)
f = min(1, m_max / m_total)
sig_pumpcool = max(f * m_cool / m_max, 0.001)
sig_pumpheat = max(f * m_heat / m_max, 0.001)
*$UNIT_NAME EFFICIENCY
*$LAYER Main
*$POSITION 344 221

*------------------------------------------------------------------------------


* Model "HEAT REJECT" (Type 682)
* 

UNIT 38 TYPE 682	 HEAT REJECT
*$UNIT_NAME HEAT REJECT
*$MODEL .\Loads and Structures (TESS)\Flowstream Loads\Other Fluids\Type682.tmf
*$POSITION 487 317
*$LAYER Main # 
PARAMETERS 1
cp_fluid		! 1 Fluid specific heat
INPUTS 3
40,1 		! PUMP_HP-COOL:Outlet fluid temperature ->Inlet temperature
40,2 		! PUMP_HP-COOL:Outlet flow rate ->Inlet flow rate
HR		! EFFICIENCY:HR ->Load
*** INITIAL INPUT VALUES
10.0 0 0.0 
*------------------------------------------------------------------------------

* Model "HEAT ABSORB" (Type 682)
* 

UNIT 39 TYPE 682	 HEAT ABSORB
*$UNIT_NAME HEAT ABSORB
*$MODEL .\Loads and Structures (TESS)\Flowstream Loads\Other Fluids\Type682.tmf
*$POSITION 482 501
*$LAYER Main # 
PARAMETERS 1
cp_fluid		! 1 Fluid specific heat
INPUTS 3
41,1 		! PUMP_HP-HEAT:Outlet fluid temperature ->Inlet temperature
41,2 		! PUMP_HP-HEAT:Outlet flow rate ->Inlet flow rate
HA		! EFFICIENCY:HA ->Load
*** INITIAL INPUT VALUES
10.0 0 0.0 
*------------------------------------------------------------------------------

* Model "PUMP_HP-COOL" (Type 110)
* 

UNIT 40 TYPE 110	 PUMP_HP-COOL
*$UNIT_NAME PUMP_HP-COOL
*$MODEL .\Hydronics\Pumps\Variable Speed\Type110.tmf
*$POSITION 347 317
*$LAYER Main # 
*$# VARIABLE-SPEED PUMP
PARAMETERS 6
m_max 		! 1 Rated flow rate
cp_fluid		! 2 Fluid specific heat
0		! 3 Rated power
0		! 4 Motor heat loss fraction
1		! 5 Number of power coefficients
1.0		! 6 Power coefficient
INPUTS 5
23,1 		! PUMP_HP:Outlet fluid temperature ->Inlet fluid temperature
40,2 		! PUMP_HP-COOL:Outlet flow rate ->Inlet fluid flow rate
sig_pumpcool		! EFFICIENCY:sig_pumpcool ->Control signal
0,0		! [unconnected] Total pump efficiency
0,0		! [unconnected] Motor efficiency
*** INITIAL INPUT VALUES
10 0 0 1 1 
*------------------------------------------------------------------------------

* Model "PUMP_HP-HEAT" (Type 110)
* 

UNIT 41 TYPE 110	 PUMP_HP-HEAT
*$UNIT_NAME PUMP_HP-HEAT
*$MODEL .\Hydronics\Pumps\Variable Speed\Type110.tmf
*$POSITION 347 501
*$LAYER Main # 
*$# VARIABLE-SPEED PUMP
PARAMETERS 6
m_max 		! 1 Rated flow rate
cp_fluid		! 2 Fluid specific heat
0		! 3 Rated power
0		! 4 Motor heat loss fraction
1		! 5 Number of power coefficients
1.0		! 6 Power coefficient
INPUTS 5
23,1 		! PUMP_HP:Outlet fluid temperature ->Inlet fluid temperature
41,2 		! PUMP_HP-HEAT:Outlet flow rate ->Inlet fluid flow rate
sig_pumpheat		! EFFICIENCY:sig_pumpheat ->Control signal
0,0		! [unconnected] Total pump efficiency
0,0		! [unconnected] Motor efficiency
*** INITIAL INPUT VALUES
10 0 0 1 1 
*------------------------------------------------------------------------------

* Model "COP_COOL" (Type 919)
* 

UNIT 42 TYPE 919	 COP_COOL
*$UNIT_NAME COP_COOL
*$MODEL .\HVAC Library (TESS)\Geothermal Heat Pump\Relative Humidity\Type919.tmf
*$POSITION 482 402
*$LAYER Main # 
*$# The value for power in the catalog data files for both heating and cooling mode should include the
*$# indoor fan.
*$# 
*$# 
*$# 
*$# 
*$# 
*$# 
*$# 
*$# 
*$# 
*$# 
*$# 
*$# 
*$# 
*$# 
*$# 
*$# 
*$# 
*$# 
*$# 
*$# 
PARAMETERS 28
2		! 1 Humidity mode
161		! 2 Logical unit for cooling data
162		! 3 Logical unit for heating data
163		! 4 Logical unit number for cooling correction data
164		! 5 Logical unit number for heating correction data
3		! 6 Number of water flow steps
4		! 7 Number of water temps. - cooling
4		! 8 Number of water temps. - heating
6		! 9 Number of wet bulb steps
4		! 10 Number of dry bulb steps - cooling
6		! 11 Number of dry bulb steps - heating
2		! 12 Number of airflow steps - cooling
2		! 13 Number of airflow steps - heating
rho_fluid		! 14 Density of liquid stream
cp_fluid		! 15 Specific heat of liquid stream
4.19		! 16 Specific heat of DHW fluid
0		! 17 Blower power
0		! 18 Controller power
0		! 19 Capacity of stage-1 auxiliary
0		! 20 Capacity of stage-2 auxiliary
hp_air_lps		! 21 Total air flow rate
capcool		! 22 Rated total cooling capacity
capsens		! 23 Rated sensible cooling capacity
powcool		! 24 Rated cooling power
capheat		! 25 Rated heating capacity
powheat		! 26 Rated heating power
hp_air_lps		! 27 Rated air flow rate
hp_ref_lps		! 28 Rated liquid flow rate
INPUTS 29
40,1 		! PUMP_HP-COOL:Outlet fluid temperature ->Inlet liquid temperature
hp_ref_flow		! [equation] Inlet liquid flow rate
tzone_cool		! [equation] Return air temperature
0,0		! [unconnected] Return air humidity ratio
rhzone_cool		! [equation] Return air %RH
0,0		! [unconnected] Return air pressure
0,0		! [unconnected] Return air damper pressure drop
0,0		! [unconnected] Fresh air temperature
0,0		! [unconnected] Fresh air humidity ratio
0,0		! [unconnected] Fresh air %RH
0,0		! [unconnected] Fresh air pressure
0,0		! [unconnected] Fresh air damper pressure drop
0,0		! [unconnected] Inlet DHW temperature
0,0		! [unconnected] Inlet DHW flow rate
0,0		! [unconnected] Cooling control signal
0,0		! [unconnected] Heating control signal
0,0		! [unconnected] Stage 1 auxiliary signal
0,0		! [unconnected] Stage 2 auxiliary signal
0,0		! [unconnected] Fan control signal
0,0		! [unconnected] Fraction of outside air
0,0		! [unconnected] Cooling desuperheater temperature
0,0		! [unconnected] Heating desuperheater temperature
0,0		! [unconnected] Desuperheater UA - cooling 
0,0		! [unconnected] Desuperheater UA - heating
0,0		! [unconnected] Fraction of rated cooling power
0,0		! [unconnected] Fraction of rated cooling capacity
0,0		! [unconnected] Fraction of rated heating power
0,0		! [unconnected] Fraction of rated heating capacity
0,0		! [unconnected] Pressure rise through heat pump
*** INITIAL INPUT VALUES
10 hp_ref_flow tzone_cool 0.008 rhzone_cool 1 0 20 0.008 50 1 0 40 0 1 0 0 0 0
0 60 55 0 0 1 1 1 1 0 
*** External files
ASSIGN "C:\Trnsys17\Tess Models\SampleCatalogData\GeothermalHeatPump\Normalized\Samp_C.Dat" 161
*|? Which file contains the heat pump cooling performance data? |1000
ASSIGN "C:\Trnsys17\Tess Models\SampleCatalogData\GeothermalHeatPump\Normalized\Samp_H.dat" 162
*|? Which file contains the heat pump heating performance data? |1000
ASSIGN "C:\Trnsys17\Tess Models\SampleCatalogData\GeothermalHeatPump\Normalized\Samp_CT.DAT" 163
*|? Which file contains the heat pump cooling correction factor data? |1000
ASSIGN "C:\Trnsys17\Tess Models\SampleCatalogData\GeothermalHeatPump\Normalized\Samp_HT.DAT" 164
*|? Which file contains the heat pump heating correction factor data? |1000
*------------------------------------------------------------------------------

* Model "COP_HEAT" (Type 919)
* 

UNIT 45 TYPE 919	 COP_HEAT
*$UNIT_NAME COP_HEAT
*$MODEL .\HVAC Library (TESS)\Geothermal Heat Pump\Relative Humidity\Type919.tmf
*$POSITION 482 590
*$LAYER Main # 
*$# The value for power in the catalog data files for both heating and cooling mode should include the
*$# indoor fan.
*$# 
*$# 
*$# 
*$# 
*$# 
*$# 
*$# 
*$# 
*$# 
*$# 
*$# 
*$# 
*$# 
*$# 
*$# 
*$# 
*$# 
*$# 
*$# 
*$# 
PARAMETERS 28
2		! 1 Humidity mode
165		! 2 Logical unit for cooling data
166		! 3 Logical unit for heating data
167		! 4 Logical unit number for cooling correction data
168		! 5 Logical unit number for heating correction data
3		! 6 Number of water flow steps
4		! 7 Number of water temps. - cooling
4		! 8 Number of water temps. - heating
6		! 9 Number of wet bulb steps
4		! 10 Number of dry bulb steps - cooling
6		! 11 Number of dry bulb steps - heating
2		! 12 Number of airflow steps - cooling
2		! 13 Number of airflow steps - heating
rho_fluid		! 14 Density of liquid stream
cp_fluid		! 15 Specific heat of liquid stream
4.19		! 16 Specific heat of DHW fluid
0		! 17 Blower power
0		! 18 Controller power
0		! 19 Capacity of stage-1 auxiliary
0		! 20 Capacity of stage-2 auxiliary
hp_air_lps		! 21 Total air flow rate
capcool		! 22 Rated total cooling capacity
capsens		! 23 Rated sensible cooling capacity
powcool		! 24 Rated cooling power
capheat		! 25 Rated heating capacity
powheat		! 26 Rated heating power
hp_air_lps		! 27 Rated air flow rate
hp_ref_lps		! 28 Rated liquid flow rate
INPUTS 29
41,1 		! PUMP_HP-HEAT:Outlet fluid temperature ->Inlet liquid temperature
hp_ref_flow		! [equation] Inlet liquid flow rate
tzone_cool		! [equation] Return air temperature
0,0		! [unconnected] Return air humidity ratio
rhzone_cool		! [equation] Return air %RH
0,0		! [unconnected] Return air pressure
0,0		! [unconnected] Return air damper pressure drop
0,0		! [unconnected] Fresh air temperature
0,0		! [unconnected] Fresh air humidity ratio
0,0		! [unconnected] Fresh air %RH
0,0		! [unconnected] Fresh air pressure
0,0		! [unconnected] Fresh air damper pressure drop
0,0		! [unconnected] Inlet DHW temperature
0,0		! [unconnected] Inlet DHW flow rate
0,0		! [unconnected] Cooling control signal
0,0		! [unconnected] Heating control signal
0,0		! [unconnected] Stage 1 auxiliary signal
0,0		! [unconnected] Stage 2 auxiliary signal
0,0		! [unconnected] Fan control signal
0,0		! [unconnected] Fraction of outside air
0,0		! [unconnected] Cooling desuperheater temperature
0,0		! [unconnected] Heating desuperheater temperature
0,0		! [unconnected] Desuperheater UA - cooling 
0,0		! [unconnected] Desuperheater UA - heating
0,0		! [unconnected] Fraction of rated cooling power
0,0		! [unconnected] Fraction of rated cooling capacity
0,0		! [unconnected] Fraction of rated heating power
0,0		! [unconnected] Fraction of rated heating capacity
0,0		! [unconnected] Pressure rise through heat pump
*** INITIAL INPUT VALUES
10 hp_ref_flow tzone_cool 0.008 rhzone_cool 1 0 20 0.008 50 1 0 40 0 0 1 0 0 0
0 60 55 0 0 1 1 1 1 0 
*** External files
ASSIGN "C:\Trnsys17\Tess Models\SampleCatalogData\GeothermalHeatPump\Normalized\Samp_C.Dat" 165
*|? Which file contains the heat pump cooling performance data? |1000
ASSIGN "C:\Trnsys17\Tess Models\SampleCatalogData\GeothermalHeatPump\Normalized\Samp_H.dat" 166
*|? Which file contains the heat pump heating performance data? |1000
ASSIGN "C:\Trnsys17\Tess Models\SampleCatalogData\GeothermalHeatPump\Normalized\Samp_CT.DAT" 167
*|? Which file contains the heat pump cooling correction factor data? |1000
ASSIGN "C:\Trnsys17\Tess Models\SampleCatalogData\GeothermalHeatPump\Normalized\Samp_HT.DAT" 168
*|? Which file contains the heat pump heating correction factor data? |1000
*------------------------------------------------------------------------------

* Model "FROM_HP_MIX" (Type 649)
* 

UNIT 25 TYPE 649	 FROM_HP_MIX
*$UNIT_NAME FROM_HP_MIX
*$MODEL .\Hydronics Library (TESS)\Valves\Mixing Valve (100 Ports)\Other Fluids\Type649.tmf
*$POSITION 386 423
*$LAYER Main # 
PARAMETERS 1
2		! 1 Number of inlets
INPUTS 4
38,1 		! HEAT REJECT:Outlet temperature ->Temperature at inlet-1
38,2 		! HEAT REJECT:Outlet flow rate ->Flow rate at inlet-1
39,1 		! HEAT ABSORB:Outlet temperature ->Temperature at inlet-2
39,2 		! HEAT ABSORB:Outlet flow rate ->Flow rate at inlet-2
*** INITIAL INPUT VALUES
10 0 10 0 
*------------------------------------------------------------------------------

* EQUATIONS "PUMP CALC"
* 
EQUATIONS 13
turndown = 0.39  ! turn-down fraction for VFD pump
mhp_max = m_max  ! kg/hr
php_max = mhp_max * 22 * 60 * 264.17 / (1000 * rho_fluid) ! kJ/hr
sig_hp_pump = max(turndown, [21,2] / mhp_max) ! source pump control signal
sig_bp_pump = max(0, turndown - ([25,2] / mhp_max)) ! Signal to bypass pump
sig_ghex_pump = Geo_switch * max((max([28,1], [26,1])), 0.01)  ! GHEX pump control signal
pcoeff_1 = 0
pcoeff_2 = 0.2
pcoeff_3 = 0.8
temp_ghex_high = 23.9
temp_ghex_low = 7.2
mghex_max = n_bhe * brfr  ! maximum flow rate through GHEX
pghex_max = mghex_max * 22 * 60 * 264.17 / (1000 * rho_fluid) ! kJ/hr
*$UNIT_NAME PUMP CALC
*$LAYER Main
*$POSITION 505 317

*------------------------------------------------------------------------------


* Model "FLOW_TOTAL" (Type 649)
* 

UNIT 21 TYPE 649	 FLOW_TOTAL
*$UNIT_NAME FLOW_TOTAL
*$MODEL .\Hydronics Library (TESS)\Valves\Mixing Valve (100 Ports)\Other Fluids\Type649.tmf
*$POSITION 618 423
*$LAYER Main # 
PARAMETERS 1
2		! 1 Number of inlets
INPUTS 4
25,1 		! FROM_HP_MIX:Outlet temperature ->Temperature at inlet-1
25,2 		! FROM_HP_MIX:Outlet flow rate ->Flow rate at inlet-1
22,1 		! PUMP_BYPASS:Outlet fluid temperature ->Temperature at inlet-2
22,2 		! PUMP_BYPASS:Outlet flow rate ->Flow rate at inlet-2
*** INITIAL INPUT VALUES
10 0 10 0 
*------------------------------------------------------------------------------

* Model "T_low" (Type 1502)
* 

UNIT 26 TYPE 1502	 T_low
*$UNIT_NAME T_low
*$MODEL .\Controllers Library (TESS)\Aquastats\Heating Mode\Type1502.tmf
*$POSITION 769 306
*$LAYER Main # 
PARAMETERS 4
1		! 1 Number of heating stages
5		! 2 # oscillations permitted
1		! 3 Temperature dead band
0		! 4 Number of stage exceptions
INPUTS 3
21,1 		! FLOW_TOTAL:Outlet temperature ->Fluid temperature
0,0		! [unconnected] Lockout signal
temp_ghex_low		! [equation] Setpoint temperature for stage
*** INITIAL INPUT VALUES
10 0 temp_ghex_low 
*------------------------------------------------------------------------------

* Model "T_high" (Type 1503)
* 

UNIT 28 TYPE 1503	 T_high
*$UNIT_NAME T_high
*$MODEL .\Controllers Library (TESS)\Aquastats\Cooling Mode\Type1503.tmf
*$POSITION 691 306
*$LAYER Main # 
PARAMETERS 4
1		! 1 Number of cooling stages
5		! 2 # oscillations permitted
1		! 3 Temperature dead band
0		! 4 Number of stage exceptions
INPUTS 3
21,1 		! FLOW_TOTAL:Outlet temperature ->Fluid temperature
0,0		! [unconnected] Lockout signal
temp_ghex_high		! [equation] Setpoint temperature for stage
*** INITIAL INPUT VALUES
10 0 temp_ghex_high 
*------------------------------------------------------------------------------

* Model "FROM_HP" (Type 647)
* 

UNIT 17 TYPE 647	 FROM_HP
*$UNIT_NAME FROM_HP
*$MODEL .\Hydronics Library (TESS)\Valves\Diverting Valve (100 Ports)\Other Fluids\Type647.tmf
*$POSITION 624 263
*$LAYER Main # 
PARAMETERS 1
2		! 1 Number of outlet ports
INPUTS 4
21,1 		! FLOW_TOTAL:Outlet temperature ->Inlet Temperature
21,2 		! FLOW_TOTAL:Outlet flow rate ->Inlet flow rate
sig_hp_divert_1		! PRIM-SEC CALC:sig_hp_divert_1 ->Fraction of flow to outlet -1
sig_hp_divert_2		! PRIM-SEC CALC:sig_hp_divert_2 ->Fraction of flow to outlet -2
*** INITIAL INPUT VALUES
10 0 1 0 
*------------------------------------------------------------------------------

* EQUATIONS "PRIM-SEC CALC"
* 
EQUATIONS 8
hp_flow_nonzero = max([21,2], 0.001)
ghex_flow_nonzero = max([81,4], 0.001)
hp_bypass_flow = max(0, [81,4] - [21,2])
ghex_bypass_flow = max(0, [21,2] - [81,4])
sig_hp_divert_2 = min(1, ghex_bypass_flow/hp_flow_nonzero)
sig_hp_divert_1 = 1- sig_hp_divert_2
sig_ghex_divert_2 = min(1, hp_bypass_flow/ghex_flow_nonzero)
sig_ghex_divert_1 = 1 - sig_ghex_divert_2
*$UNIT_NAME PRIM-SEC CALC
*$LAYER Main
*$POSITION 473 168

*------------------------------------------------------------------------------


* Model "FROM_GHEX" (Type 647)
* 

UNIT 18 TYPE 647	 FROM_GHEX
*$UNIT_NAME FROM_GHEX
*$MODEL .\Hydronics Library (TESS)\Valves\Diverting Valve (100 Ports)\Other Fluids\Type647.tmf
*$POSITION 287 263
*$LAYER Main # 
PARAMETERS 1
2		! 1 Number of outlet ports
INPUTS 4
81,3 		! HZPIPE:Outlet fluid temperature - pipe 2 ->Inlet Temperature
81,4 		! HZPIPE:Outlet fluid flow rate - pipe 2 ->Inlet flow rate
sig_ghex_divert_1		! PRIM-SEC CALC:sig_ghex_divert_1 ->Fraction of flow to outlet -1
sig_ghex_divert_2		! PRIM-SEC CALC:sig_ghex_divert_2 ->Fraction of flow to outlet -2
*** INITIAL INPUT VALUES
10 0 1 0 
*------------------------------------------------------------------------------

* Model "HP_MIX" (Type 649)
* 

UNIT 16 TYPE 649	 HP_MIX
*$UNIT_NAME HP_MIX
*$MODEL .\Hydronics Library (TESS)\Valves\Mixing Valve (100 Ports)\Other Fluids\Type649.tmf
*$POSITION 403 263
*$LAYER Main # 
PARAMETERS 1
2		! 1 Number of inlets
INPUTS 4
18,1 		! FROM_GHEX:Outlet temperature-1 ->Temperature at inlet-1
18,2 		! FROM_GHEX:Outlet flow rate-1 ->Flow rate at inlet-1
17,3 		! FROM_HP:Outlet temperature-2 ->Temperature at inlet-2
17,4 		! FROM_HP:Outlet flow rate-2 ->Flow rate at inlet-2
*** INITIAL INPUT VALUES
10 0 10 0 
*------------------------------------------------------------------------------

* Model "TO_GHEX" (Type 649)
* 

UNIT 15 TYPE 649	 TO_GHEX
*$UNIT_NAME TO_GHEX
*$MODEL .\Hydronics Library (TESS)\Valves\Mixing Valve (100 Ports)\Other Fluids\Type649.tmf
*$POSITION 740 263
*$LAYER Main # 
PARAMETERS 1
2		! 1 Number of inlets
INPUTS 4
17,1 		! FROM_HP:Outlet temperature-1 ->Temperature at inlet-1
17,2 		! FROM_HP:Outlet flow rate-1 ->Flow rate at inlet-1
77,1 		! GHEX_CAPACITANCE:Outlet temperature ->Temperature at inlet-2
77,2 		! GHEX_CAPACITANCE:Outlet flow rate ->Flow rate at inlet-2
*** INITIAL INPUT VALUES
10 0 10 0 
*------------------------------------------------------------------------------

* Model "CHILLER" (Type 655)
* 

UNIT 62 TYPE 655	 CHILLER
*$UNIT_NAME CHILLER
*$MODEL .\HVAC Library (TESS)\Chillers\Air-Cooled Chiller\Type655.tmf
*$POSITION 547 605
*$LAYER Main # 
*$# AIR-COOLED CHILLER
PARAMETERS 8
capacity_chiller		! 1 Rated capacity
eff_chiller		! 2 Rated C.O.P.
277		! 3 Logical unit for performance data
278		! 4 Logical unit for PLR data file
cp_fluid		! 5 Fluid specific heat
5		! 6 Number of ambient temperatures
6		! 7 Number of CHW set points
5		! 8 Number of part load ratios
INPUTS 5
79,1 		! TO_HP:Outlet temperature ->Chilled water inlet temperature
79,2 		! TO_HP:Outlet flow rate ->Chilled water flow rate
tset_chiller		! [equation] Set point temperature
0,0		! [unconnected] Ambient temperature
chiller_switch		! [equation] Chiller control signal
*** INITIAL INPUT VALUES
10 0 tset_chiller 30.0 chiller_switch 
*** External files
ASSIGN "C:\Trnsys17\Tess Models\SampleCatalogData\AirCooledChiller\Samp_C.Dat" 277
*|? Which file contains the chiller performance data? |1000
ASSIGN "C:\Trnsys17\Tess Models\SampleCatalogData\AirCooledChiller\Samp_PLR.Dat" 278
*|? Which file contains the part-load performance data? |1000
*------------------------------------------------------------------------------

* Model "CT" (Type 510)
* 

UNIT 54 TYPE 510	 CT
*$UNIT_NAME CT
*$MODEL .\HVAC Library (TESS)\Closed Circuit Cooling Tower\Type510.tmf
*$POSITION 758 529
*$LAYER Main # 
*$# CLOSED CIRCUIT COOLING TOWER
PARAMETERS 15
2		! 1 Humidity mode
T_in_design		! 2 Design inlet fluid temperature
T_out_design		! 3 Design outlet fluid temperature
m_ct_design		! 4 Design fluid flow rate
cp_fluid		! 5 Fluid specific heat
T_db_design		! 6 Design ambient air temperature
T_wb_design		! 7 Design wet bulb temperature
m_ctfan_design		! 8 Design air flow rate
1.0		! 9 Air pressure at design conditions
p_ctfan_design		! 10 Rated fan power
4		! 11 Number of power coefficients
0.0		! 12 Power coefficient-1
0.0		! 13 Power coefficient-2
0.0		! 14 Power coefficient-3
1		! 15 Power coefficient-4
INPUTS 8
T_toCT		! CT_helper:T_toCT ->Fluid inlet temperature
m_toCT		! CT_helper:m_toCT ->Fluid flow rate
63,1 		! WEATHER:Dry bulb temperature ->Ambient temperature
0,0		! [unconnected] Ambient humidity ratio
63,7 		! WEATHER:Percent relative humidity ->Ambient % RH
0,0		! [unconnected] Ambient air pressure
0,0		! [unconnected] Fan control signal
tset_ctpid		! [equation] Desired Outlet Temperature
*** INITIAL INPUT VALUES
10.0 0.0 20.0 0.005 50.0 1.0 -1 tset_ctpid 
*------------------------------------------------------------------------------

* Model "CT_SIZER" (Type 92)
* 

UNIT 76 TYPE 92	 CT_SIZER
*$UNIT_NAME CT_SIZER
*$MODEL .\HVAC\Auxiliary Cooling Unit\Type92.tmf
*$POSITION 544 418
*$LAYER Main # 
*$# This model is extremely similar to the TYPE6 Auxiliary Heater
PARAMETERS 4
capacity_cooler		! 1 Maximum cooling rate
cp_fluid		! 2 Specific heat of fluid
0		! 3 Overall loss coefficient
1		! 4 Cooling device efficiency
INPUTS 5
T_output		! CT_helper:T_output ->Inlet fluid temperature
m_output		! CT_helper:m_output ->Fluid mass flow rate
0,0		! [unconnected] Control Function
tset_cooler		! [equation] Set point temperature
0,0		! [unconnected] Temperature of surroundings
*** INITIAL INPUT VALUES
20.0 100.0 1 tset_cooler 20.0 
*------------------------------------------------------------------------------

* Model "BOILER" (Type 6)
* 

UNIT 51 TYPE 6	 BOILER
*$UNIT_NAME BOILER
*$MODEL .\HVAC\Auxiliary Heaters\Type6.tmf
*$POSITION 544 328
*$LAYER Main # 
PARAMETERS 4
capacity_boiler		! 1 Maximum heating rate
cp_fluid		! 2 Specific heat of fluid
0		! 3 Overall loss coefficient for heater during operation
eff_boiler		! 4 Efficiency of auxiliary heater
INPUTS 5
76,1 		! CT_SIZER:Outlet fluid temperature ->Inlet fluid temperature
76,2 		! CT_SIZER:Outlet fluid flow rate ->Fluid mass flow rate
boiler_switch		! [equation] Control Function
tset_boiler		! [equation] Set point temperature
0,0		! [unconnected] Temperature of surroundings
*** INITIAL INPUT VALUES
10 0 boiler_switch tset_boiler 20.0 
*------------------------------------------------------------------------------

* Model "CHILLER_SIGNAL" (Type 1503)
* 

UNIT 72 TYPE 1503	 CHILLER_SIGNAL
*$UNIT_NAME CHILLER_SIGNAL
*$MODEL .\Controllers Library (TESS)\Aquastats\Cooling Mode\Type1503.tmf
*$POSITION 541 360
*$LAYER Main # 
PARAMETERS 4
1		! 1 Number of cooling stages
5		! 2 # oscillations permitted
0		! 3 Temperature dead band
0		! 4 Number of stage exceptions
INPUTS 3
16,1 		! HP_MIX:Outlet temperature ->Fluid temperature
0,0		! [unconnected] Lockout signal
tset_chiller		! [equation] Setpoint temperature for stage
*** INITIAL INPUT VALUES
10 0 tset_chiller 
*------------------------------------------------------------------------------

* Model "CT_SIGNAL" (Type 1503)
* 

UNIT 57 TYPE 1503	 CT_SIGNAL
*$UNIT_NAME CT_SIGNAL
*$MODEL .\Controllers Library (TESS)\Aquastats\Cooling Mode\Type1503.tmf
*$POSITION 722 361
*$LAYER Main # 
PARAMETERS 4
1		! 1 Number of cooling stages
5		! 2 # oscillations permitted
0		! 3 Temperature dead band
0		! 4 Number of stage exceptions
INPUTS 3
62,1 		! CHILLER:Outlet fluid temperature ->Fluid temperature