VERSION 17
*******************************************************************************
*** TRNSYS input file (deck) generated by TrnsysStudio
*** on Sunday, January 12, 2025 at 12:59
*** from TrnsysStudio project: C:\Trnsys17\MyProjects\Sentry Hall GSHP\TRNSYS-HeatRecovery\CPGSHP_012.tpf
*** 
*** If you edit this file, use the File/Import TRNSYS Input File function in 
*** TrnsysStudio to update the project. 
*** 
*** If you have problems, questions or suggestions please contact your local 
*** TRNSYS distributor or mailto:software@cstb.fr 
*** 
*******************************************************************************


*******************************************************************************
*** Units 
*******************************************************************************

*******************************************************************************
*** Control cards
*******************************************************************************
* START, STOP and STEP
CONSTANTS 3
START=0
STOP=final
STEP=timestep
SIMULATION 	 START	 STOP	 STEP	! Start time	End time	Time step
TOLERANCES 0.0001 0.0001			! Integration	 Convergence
LIMITS 30 errorval 30				! Max iterations	Max warnings	Trace limit
DFQ 1					! TRNSYS numerical integration solver method
WIDTH 80				! TRNSYS output file width, number of characters
LIST 					! NOLIST statement
					! MAP statement
SOLVER 0 1 1				! Solver statement	Minimum relaxation factor	Maximum relaxation factor
NAN_CHECK 0				! Nan DEBUG statement
OVERWRITE_CHECK 0			! Overwrite DEBUG statement
TIME_REPORT 0			! disable time report
EQSOLVER 0				! EQUATION SOLVER statement
* User defined CONSTANTS 
Equations 3
final=8760*25
timestep=6/60
errorval=final*(1/timestep)*0.01

* EQUATIONS "Fluid"
* 
EQUATIONS 20
rho_hw = 1000  ! kg/m^3
cp_hw = 4.190  ! kJ/kg.K
rho_chw = 1000  ! kg/m^3
cp_chw = 4.190  ! kJ/kg.K
rho_src = 1000  ! kg/m^3
cp_src = 4.190  ! kJ/kg.K
c_tankloss = 1  ! kJ/hr.m^2.K
k_hw = 2.14  ! kJ/hr.m.K
v_hw = 3.21  ! kg/m.hr
k_chw = 2.14  ! kJ/hr.m.K
v_chw = 3.21  ! kg/m.hr
galperton = 8  ! gallons per ton buffer storage, 3 to 12 is typical
vol_chw1 = q_coolmax * galperton / (12660.670231 * 264.17)  ! m^3
vol_hw1 = q_heatmax * galperton / (12660.670231 * 264.17)  ! m^3
vol_chw2 = 3 * 1.2 * max(m_pumpCHWmax, m_chwmax) * timestep / rho_chw ! m^3, a volume over 3 times greater than that moved in a timestep
vol_hw2 = 3 * 1.2 * max(m_pumpHWmax, m_hwmax) * timestep / rho_hw ! m^3, a volume over 3 times greater than that moved in a timestep
vol_chw = max(vol_chw1, vol_chw2)
vol_hw = max(vol_hw1, vol_hw2)
high_chw = vol_chw * 3  ! m, a calculation for the height of the tank based on the volume
high_hw = vol_hw * 3  ! m, a calculation for the height of the tank based on the volume
*$UNIT_NAME Fluid
*$LAYER Main
*$POSITION 75 305

*------------------------------------------------------------------------------


* EQUATIONS "CalcBHE"
* 
EQUATIONS 34
sim_years = max(int(final / 8760), 1)
plotspersim = sim_years
n_bhe = max(int(Length_GHX/(depth*3.28))+1 , 1) ! max(int(q_cool_stg2 * n_modules / (12660 * 5)), 1)  ! 20  ! number of borehole heat exchangers
enable_bhe = gt(Length_GHX, 0)
spacing = 20/3.28  ! ft --> m, the spacing between bore centerlines
depth = 500 / 3.28 ! ft --> m, the depth drilled to
pattern = 0.5642   ! 0.5642 = square, 0.525 = hexagonal
stgvol = 3.14159 * n_bhe * depth * (pattern * spacing) * (pattern * spacing)   ! m^3
brfr = 8 * 60 * rho_src / 264.17   ! gpm --> kg/hr, the design flow rate per bore
dP_bhe = (1.6) * 2.98608 * 3.280839895 / 100 ! (ftH2O/100ft) --> kPa/m, assume 8 gpm/bhe and 1-1/4 HDPE
k_soil = Ground_Conduct * 1.7295772056 * 3.6  ! Btu/hr.ft.F --> kJ/hr.m.K
k_fill = 0.85 * 1.7295772056 * 3.6  ! Btu/hr.ft.F --> kJ/hr.m.K
cp_soil = 1.0   ! leave as one
rho_soil = k_soil * 258.334/(Ground_Diff)/cp_soil  ! Insert Thermal Diffusivity - Alpha [ft^2/day] into parenthesis - kg/m^3
rhocp_soil = cp_soil * rho_soil
t_ground = (Ground_Temp - 32)*5/9  ! F --> C
rad_bore = 6.0 / (2 * 39.37007874)  ! in --> m
sdr = 11   !  hdpe pipe diameter ratio
do_pipe = 1.660 / 39.37007874  ! in --> m
di_pipe = do_pipe * (sdr-2) / sdr    ! m
ro_pipe = do_pipe / 2    ! m
ri_pipe = di_pipe / 2   ! m
width_gap = (2 * rad_bore - 2 * do_pipe) / 3    ! m
half_gap = 0.010
shank_spacing = ro_pipe + half_gap   ! m
length_hdpe = depth * 2 + spacing * (n_bhe**0.5) + 40/3.28   ! m
di_hdpe = 2 * (n_bhe * ri_pipe * ri_pipe)**0.5  ! m
sdr_hz = 15.5   !  hdpe pipe diameter ratio, horizontal pipes
do_hzpipe = 2.875 / 39.37007874  ! in --> m
di_hzpipe = do_hzpipe * (sdr_hz-2) / sdr_hz    ! m
length_hzpipe = (n_bhe*spacing+20/3.28)
depth_hzpipe = 4 / 3.28 ! ft --> m, the depth of buried horizontal pipe
do_case = 5 * do_hzpipe
space_hz = 2 * do_hzpipe
*$UNIT_NAME CalcBHE
*$LAYER Main
*$POSITION 125 328

*------------------------------------------------------------------------------


* EQUATIONS "CalcFlow"
* 
EQUATIONS 55
q_coolmax = Peak_CHW_MBH * 1055.0558526  ! MBH --> kJ/hr, the max load, set by user
q_heatmax = Peak_HW_MBH * 1055.0558526  ! MBH --> kJ/hr, the max load, set by user
q_cool_stg2 = 30.7 * 12660.670231  ! tons --> kJ/hr, the rated cooling capacity of one module
q_cool_stg1 = q_cool_stg2 / 2
p_cool_stg2 = 22.6 * 3600  ! kW --> kJ/hr, the rated cooling power of one module
p_cool_stg1 = p_cool_stg2 / 2
q_heat_stg2 = 413.6 * 1055.0558526  ! MBH --> kJ/hr, the rated heating capacity of one module
q_heat_stg1 = q_heat_stg2 / 2
p_heat_stg2 = 27.0 * 3600  ! kW --> kJ/hr, the rated heating power of one module
p_heat_stg1 = p_heat_stg2 / 2
percent_hybrid = Hybrid_Percent ! base 100
n_modules = int((1 - percent_hybrid/100) * max(q_coolmax / q_cool_stg2, q_heatmax / q_heat_stg2) + 1)  ! the total number of HP modules, allow arbitrary reductions to study hybrid systems
dT_cool = 10 * 5/9  ! dF --> dC, the HW system design delta T
dT_heat = 15 * 5/9  ! dF --> dC, the CHW system design delta T
dP_cool = 150 * 2.98608  ! ftH2O --> kPa, the CHW system design pressure drop, don't count the heat pumps
dP_heat = 175 * 2.98608  ! ftH2O --> kPa, the HW system design pressure drop, don't count the heat pumps
sig_loadmin = 0.10  ! the minimum speed fraction for the load pumps
effloadpump = 0.65  ! the efficiency of the load pumps
m_chwmax = q_coolmax / (cp_chw * dT_cool)  ! kg/hr, the maximum mass flow rate through the load pump
m_hwmax = q_heatmax / (cp_hw * dT_heat)  ! kg/hr, the maximum mass flow rate through the load pump
p_chwmax = m_chwmax * dP_cool / (rho_chw * effloadpump)  ! kJ/hr
p_hwmax = m_hwmax * dP_heat / (rho_hw * effloadpump)  ! kJ/hr
m_loadcool = q_cool_stg2 / (cp_chw * dT_cool)  ! kg/hr, flow through one module
m_loadheat = q_heat_stg2 / (cp_hw * dT_heat)  ! kg/hr, flow through one module
m_source = m_loadcool  ! kg/hr, flow through one module
m_vpumpCmax = n_modules * m_loadcool
m_vpumpChalf = m_vpumpCmax / 2
m_vpumpHmax = n_modules * m_loadheat
m_vpumpHhalf = m_vpumpHmax / 2
m_vpumpSmax = n_modules * m_source
m_vpumpShalf = m_vpumpSmax / 2
m_pumpCHWmax = max(m_vpumpCmax, m_chwmax)
m_pumpHWmax = max(m_vpumpHmax, m_hwmax)
m_pumpSRCmax = max(max(m_vpumpSmax, m_chwmax), m_hwmax)
dP_HPchw = 14 * 2.98608  ! ftH2O --> kPa, the design pressure drop through the heat pumps
dP_HPhw = 8 * 2.98608  ! ftH2O --> kPa, the design pressure drop through the heat pumps
dP_HPsrc = 16 * 2.98608  ! ftH2O --> kPa, the design pressure drop through the heat pumps
dP_HX = 0 * 2.98608  ! ftH2O --> kPa, the design pressure drop through the HX, enter zero if direct connect
effHPpump = 0.65
p_pumpCHWmax = m_pumpCHWmax * dP_HPchw / (rho_chw * effHPpump)  ! kJ/hr
p_pumpCHWfree = m_pumpCHWmax * dP_HX / (rho_chw * effHPpump)  ! kJ/hr
p_pumpHWmax = m_pumpHWmax * dP_HPhw / (rho_hw * effHPpump)  ! kJ/hr
p_pumpHWfree = m_pumpHWmax * dP_HX / (rho_hw * effHPpump)  ! kJ/hr
p_pumpSRCmax = m_pumpSRCmax * dP_HPsrc / (rho_src * effHPpump)  ! kJ/hr
p_pumpSRCfree = m_pumpSRCmax * dP_HX / (rho_src * effHPpump)  ! kJ/hr
lps_loadcool = m_loadcool * 1000 / (3600 * rho_chw)  ! kg/hr --> liters per second
lps_loadheat = m_loadheat * 1000 / (3600 * rho_chw)  ! kg/hr --> liters per second
lps_source = m_source * 1000 / (3600 * rho_chw)  ! kg/hr --> liters per second
lps_halfcool = lps_loadcool / 2
lps_halfheat = lps_loadheat / 2
lps_halfsource = lps_source / 2
di_hppipe = 8 / 39.37007874  ! in --> m
area_hppipe = 3.1416 * di_hppipe * di_hppipe / 4  ! m^2
vol_src = 2.1 * m_pumpSRCmax * timestep / rho_src  ! m^3, a volume greater than the one changed in one timestep
length_hppipe = max(vol_src / area_hppipe, 10)  ! m
*$UNIT_NAME CalcFlow
*$LAYER Main
*$POSITION 184 351

*------------------------------------------------------------------------------


* Model "ToaReset" (Type 1250)
* 

UNIT 86 TYPE 1250	 ToaReset
*$UNIT_NAME ToaReset
*$MODEL .\Controllers Library (TESS)\Outside Air Reset Control\Type1250.tmf
*$POSITION 137 138
*$LAYER Main # 
PARAMETERS 11
2		! 1 Number of controls
1		! 2 Mode-1
-23		! 3 Low ambient temperature condition (T_Amb_L)-1
t_hwmax		! 4 Low ambient setpoint (T_Set_L)-1
13		! 5 High ambient temperature condition (T_Amb_H)-1
t_hwmin		! 6 High ambient setpoint (T_Set_H)-1
2		! 7 Mode-2
18		! 8 Low ambient temperature condition (T_Amb_L)-2
t_chwmax		! 9 Low ambient setpoint (T_Set_L)-2
38		! 10 High ambient temperature condition (T_Amb_H)-2
t_chwmin		! 11 High ambient setpoint (T_Set_H)-2
INPUTS 2
87,4 		! HourlyLoads:Output 4 ->Ambient temperature-1
87,4 		! HourlyLoads:Output 4 ->Ambient temperature-2
*** INITIAL INPUT VALUES
10 10 
*------------------------------------------------------------------------------

* Model "ResetHW" (Type 14)
* 

UNIT 65 TYPE 14	 ResetHW
*$UNIT_NAME ResetHW
*$MODEL .\Utility\Forcing Functions\Temperature\Type14e.tmf
*$POSITION 135 246
*$LAYER Main # 
PARAMETERS 12
0		! 1 Initial value of time
t_hwmax		! 2 Initial temperature
1460		! 3 Time at point-1
t_hwmax		! 4 Temperature at point -1
2920		! 5 Time at point-2
t_hwmin		! 6 Temperature at point -2
5840		! 7 Time at point-3
t_hwmin		! 8 Temperature at point -3
7300		! 9 Time at point-4
t_hwmax		! 10 Temperature at point -4
8760		! 11 Time at point-5
t_hwmax		! 12 Temperature at point -5
*------------------------------------------------------------------------------

* Model "ResetCHW" (Type 14)
* 

UNIT 63 TYPE 14	 ResetCHW
*$UNIT_NAME ResetCHW
*$MODEL .\Utility\Forcing Functions\Temperature\Type14e.tmf
*$POSITION 137 364
*$LAYER Main # 
PARAMETERS 12
0		! 1 Initial value of time
t_chwmax		! 2 Initial temperature
1460		! 3 Time at point-1
t_chwmax		! 4 Temperature at point -1
2920		! 5 Time at point-2
t_chwmin		! 6 Temperature at point -2
5840		! 7 Time at point-3
t_chwmin		! 8 Temperature at point -3
7300		! 9 Time at point-4
t_chwmax		! 10 Temperature at point -4
8760		! 11 Time at point-5
t_chwmax		! 12 Temperature at point -5
*------------------------------------------------------------------------------

* EQUATIONS "CalcTempCtrl"
* 
EQUATIONS 19
t_hwmax = (135 - 32) * 5/9  ! F --> C, used to generate the HW reset schedule
t_hwmin = (100 - 32) * 5/9  ! F --> C, used to generate the HW reset schedule
t_chwmax = (54 - 32) * 5/9  ! F --> C, used to generate the CHW reset schedule
t_chwmin = (44 - 32) * 5/9  ! F --> C, used to generate the CHW reset schedule
dt_ctrl = 4 * 5/9  ! dF --> dC, the temperature difference for proportional control
dt_ctrlfree = 5 * 5/9  ! dF --> dC, the temperature difference for economizing
t_freeheatset = [86,1] - dt_ctrl/2
t_hwtankhigh = [86,1] + 2*dt_ctrl
t_hwtanklow = [86,1] - 2*dt_ctrl
t_boilerset = t_hwtanklow - dt_ctrl
t_freecoolset = [86,3] + dt_ctrl/2
t_chwtankhigh = [86,3] + 2*dt_ctrl
t_chwtanklow = [86,3] - 2*dt_ctrl
t_chillerset = t_chwtankhigh + dt_ctrl
t_gxtoohigh = (100 - 32) * 5/9  ! F --> C, used to lock out HP cooling
t_gxtoolow = (32 - 32) * 5/9  ! F --> C, used to lock out HP heating
t_bhepumphigh = (75 - 32) * 5/9  ! F --> C, run the GX pump above this temp
t_bhepumplow = (45 - 32) * 5/9  ! F --> C, run the GX pump below this temp
lockout_econ = 0.1
*$UNIT_NAME CalcTempCtrl
*$LAYER Main
*$POSITION 368 245

*------------------------------------------------------------------------------


* Model "Average" (Type 939)
* 

UNIT 85 TYPE 939	 Average
*$UNIT_NAME Average
*$MODEL .\Utility Library (TESS)\Running Totals and Averages\Type939.tmf
*$POSITION 134 468
*$LAYER Main # 
*$# RUNNING TOTALS AND AVERAGES
*$# 
*$# 
*$# 
*$# 
*$# 
*$# 
*$# 
*$# 
*$# 
*$# 
*$# 
*$# 
*$# 
*$# 
*$# 
*$# 
*$# 
*$# 
*$# 
PARAMETERS 3
1		! 1 Number of inputs to watch
2		! 2 Time period
t_ground		! 3 Average value for input
INPUTS 1
40,1 		! vPumpS6:Outlet fluid temperature ->Input value
*** INITIAL INPUT VALUES
0. 
*------------------------------------------------------------------------------

* Model "astat_freeheat" (Type 1503)
* 

UNIT 67 TYPE 1503	 astat_freeheat
*$UNIT_NAME astat_freeheat
*$MODEL .\Controllers Library (TESS)\Aquastats\Cooling Mode\Type1503.tmf
*$POSITION 532 329
*$LAYER Main # 
PARAMETERS 4
1		! 1 Number of cooling stages
5		! 2 # oscillations permitted
dt_ctrlfree		! 3 Temperature dead band
0		! 4 Number of stage exceptions
INPUTS 3
85,2 		! Average:Running average ->Fluid temperature
lockout_econ		! CalcTempCtrl:lockout_econ ->Lockout signal
t_freeheatset		! CalcTempCtrl:t_freeheatset ->Setpoint temperature for stage
*** INITIAL INPUT VALUES
10 0 40 
*------------------------------------------------------------------------------

* Model "astat_freecool" (Type 1502)
* 

UNIT 68 TYPE 1502	 astat_freecool
*$UNIT_NAME astat_freecool
*$MODEL .\Controllers Library (TESS)\Aquastats\Heating Mode\Type1502.tmf
*$POSITION 532 417
*$LAYER Main # 
PARAMETERS 4
1		! 1 Number of heating stages
5		! 2 # oscillations permitted
dt_ctrlfree		! 3 Temperature dead band
0		! 4 Number of stage exceptions
INPUTS 3
85,2 		! Average:Running average ->Fluid temperature
lockout_econ		! CalcTempCtrl:lockout_econ ->Lockout signal
t_freecoolset		! CalcTempCtrl:t_freecoolset ->Setpoint temperature for stage
*** INITIAL INPUT VALUES
10 0 0 
*------------------------------------------------------------------------------

* Model "astat_shed_toolow" (Type 1502)
* 

UNIT 70 TYPE 1502	 astat_shed_toolow
*$UNIT_NAME astat_shed_toolow
*$MODEL .\Controllers Library (TESS)\Aquastats\Heating Mode\Type1502.tmf
*$POSITION 532 599
*$LAYER Main # 
PARAMETERS 4
1		! 1 Number of heating stages
5		! 2 # oscillations permitted
dt_ctrl		! 3 Temperature dead band
0		! 4 Number of stage exceptions
INPUTS 3
85,2 		! Average:Running average ->Fluid temperature
0,0		! [unconnected] Lockout signal
t_gxtoolow		! CalcTempCtrl:t_gxtoolow ->Setpoint temperature for stage
*** INITIAL INPUT VALUES
10 0 0 
*------------------------------------------------------------------------------

* Model "astat_shed_toohigh" (Type 1503)
* 

UNIT 69 TYPE 1503	 astat_shed_toohigh
*$UNIT_NAME astat_shed_toohigh
*$MODEL .\Controllers Library (TESS)\Aquastats\Cooling Mode\Type1503.tmf
*$POSITION 532 511
*$LAYER Main # 
PARAMETERS 4
1		! 1 Number of cooling stages
5		! 2 # oscillations permitted
dt_ctrl		! 3 Temperature dead band
0		! 4 Number of stage exceptions
INPUTS 3
85,2 		! Average:Running average ->Fluid temperature
0,0		! [unconnected] Lockout signal
t_gxtoohigh		! CalcTempCtrl:t_gxtoohigh ->Setpoint temperature for stage
*** INITIAL INPUT VALUES
10 0 40 
*------------------------------------------------------------------------------

* Model "Prop_ctrl" (Type 1669)
* 

UNIT 64 TYPE 1669	 Prop_ctrl
*$UNIT_NAME Prop_ctrl
*$MODEL .\Controllers Library (TESS)\Proportional Controller\Type1669.tmf
*$POSITION 526 245
*$LAYER Main # 
PARAMETERS 5
2		! 1 Number of signals
maxrate		! 2 Maximum rate of increase-1
maxrate		! 3 Maximum rate of decrease-1
maxrate		! 4 Maximum rate of increase-2
maxrate		! 5 Maximum rate of decrease-2
INPUTS 6
t_hwtankhigh		! CalcTempCtrl:t_hwtankhigh ->Upper set point value-1
t_hwtanklow		! CalcTempCtrl:t_hwtanklow ->Lower set point value-1
20,18 		! Tank_HW:Tank nodal temperature-1 ->Input value-1
t_chwtankhigh		! CalcTempCtrl:t_chwtankhigh ->Upper set point value-2
t_chwtanklow		! CalcTempCtrl:t_chwtanklow ->Lower set point value-2
21,20 		! Tank_CHW:Tank nodal temperature-3 ->Input value-2
*** INITIAL INPUT VALUES
t_hwtankhigh t_hwtanklow t_hwmax t_chwtankhigh t_chwtanklow t_chwmax

*------------------------------------------------------------------------------

* Model "Delay" (Type 661)
* 

UNIT 84 TYPE 661	 Delay
*$UNIT_NAME Delay
*$MODEL .\Controllers Library (TESS)\Delayed Inputs\Type661.tmf
*$POSITION 634 249
*$LAYER Main # 
*$# The stickiness is set by the number of timesteps and not based on the number of hours.
PARAMETERS 5
2		! 1 Number of inputs
stepdelay		! 2 # of timesteps to hold value-1
0.0		! 3 Initial function value-1
stepdelay		! 4 # of timesteps to hold value-2
0.0		! 5 Initial function value-2
INPUTS 2
64,1 		! Prop_ctrl:Control signal-1 ->Input value-1
64,2 		! Prop_ctrl:Control signal-2 ->Input value-2
*** INITIAL INPUT VALUES
0.0 0.0 
*------------------------------------------------------------------------------

* EQUATIONS "CalcHPctrl"
* 
EQUATIONS 50
q_cool = 1.055*abs([87,2])  ! kJ/hr, from data file
q_heat = 1.055*abs([87,3])  ! kJ/hr, from data file
q_heat_neg = 0 - q_heat  ! kJ/hr, negative value
m_chw = q_cool / (cp_chw * dT_cool)  ! kg/hr, the desired mass flow rate
m_hw = q_heat / (cp_hw * dT_heat)  ! kg/hr, the desired mass flow rate
sig_phwload = min(max(m_hw / m_hwmax, sig_loadmin), 1)
sig_pchwload = min(max(m_chw / m_chwmax, sig_loadmin), 1)
sig_correct_hw = 0 - 2 * ([84,1] - 0.5)
sig_correct_chw = 2 * ([84,2] - 0.5)
gain_hw = 3  ! a control value, tuned manually
gain_chw = 3  ! a control value, tuned manually
maxrate = 1  ! a control value, tuned manually
stepdelay = min(max(int(0.5 / timestep), 1), 25)
freeheat = [67,1] * enable_bhe
freecool = [68,1] * enable_bhe
hpheatok = (1 - [70,1]) * (1 - freeheat) * enable_bhe  ! lockout heating HPs if GX temp too high or if economizing or if geo disabled
hpcoolok = (1 - [69,1]) * (1 - freecool) * enable_bhe  ! lockoutcooling HPs if GX temp too low or if economizing or if geo disabled
mods_heat = max((q_heat / q_heat_stg2) + gain_hw * sig_correct_hw + 0.5, 0)  ! feed forward control logic, the fractional number of modules desired
mods_cool = max((q_cool / q_cool_stg2) + gain_chw * sig_correct_chw + 0.5, 0)  ! feed forward control logic, the fractional number of modules desired
limit_heat = min(mods_heat, n_modules)
limit_cool = min(mods_cool, n_modules)
round_nheat = int(2 * limit_heat) / 2  ! round to nearest 0.5
round_ncool = int(2 * limit_cool) / 2  ! round to nearest 0.5
round_ndhr = min(round_nheat, round_ncool)  ! number in heat recovery
remain_heat = hpheatok * max(round_nheat - round_ndhr, 0)  ! number in HP heat mode
remain_cool = hpcoolok * max(round_ncool - round_ndhr, 0)  ! number in HP cool mode
n_dhr_2nd = int(round_ndhr)
n_dhr_1st = 2 * (round_ndhr - n_dhr_2nd)
n_heat_2nd = int(remain_heat)
n_heat_1st = 2 * (remain_heat - n_heat_2nd)
n_cool_2nd = int(remain_cool)
n_cool_1st = 2 * (remain_cool - n_cool_2nd)
n_total = n_dhr_1st + n_dhr_2nd + n_heat_1st + n_heat_2nd + n_cool_1st + n_cool_2nd
nosrcflow = 1 - gt(n_heat_1st + n_heat_2nd + n_cool_1st + n_cool_2nd, 0)
sig_vpumpS1 = freeheat * min(m_hw / m_hwmax, 1)
sig_vpumpS2 = min(n_heat_1st * m_source / m_vpumpSmax, 1)
sig_vpumpS3 = min(n_heat_2nd * m_source / m_vpumpSmax, 1)
sig_vpumpS4 = min(n_cool_1st * m_source / m_vpumpSmax, 1)
sig_vpumpS5 = min(n_cool_2nd * m_source / m_vpumpSmax, 1)
sig_vpumpS6 = max(freecool * min(m_chw / m_chwmax, 1), 0.05 * nosrcflow * enable_bhe)
sig_vpumpH1 = freeheat * min(m_hw / m_hwmax, 1)
sig_vpumpH2 = min(n_heat_1st * m_loadheat / m_vpumpHmax, 1)
sig_vpumpH3 = min(n_heat_2nd * m_loadheat / m_vpumpHmax, 1)
sig_vpumpH4 = min(n_dhr_1st * m_loadheat / m_vpumpHmax, 1)
sig_vpumpH5 = min(n_dhr_2nd * m_loadheat / m_vpumpHmax, 1)
sig_vpumpC1 = min(n_cool_1st * m_loadcool / m_vpumpCmax, 1)
sig_vpumpC2 = min(n_cool_2nd * m_loadcool / m_vpumpCmax, 1)
sig_vpumpC3 = freecool * min(m_chw / m_chwmax, 1)
sig_vpumpC4 = min(n_dhr_1st * m_loadcool / m_vpumpCmax, 1)
sig_vpumpC5 = min(n_dhr_2nd * m_loadcool / m_vpumpCmax, 1)
*$UNIT_NAME CalcHPctrl
*$LAYER Main
*$POSITION 742 245

*------------------------------------------------------------------------------


* Model "Tank_HW" (Type 534)
* 

UNIT 20 TYPE 534	 Tank_HW
*$UNIT_NAME Tank_HW
*$MODEL .\Storage Tank Library (TESS)\Cylindrical Storage Tank\Vertical Cylinder\Version without Plug-In\No HXs\Type534-NoHX.tmf
*$POSITION 1147 180
*$LAYER Main # 
*$# CYLINDRICAL STORAGE TANK
PARAMETERS 28
-1		! 1 LU for data file
3		! 2 Number of tank nodes
2		! 3 Number of ports
0		! 4 Number of immersed heat exchangers
0		! 5 Number of miscellaneous heat flows
vol_hw		! 6 Tank volume
high_hw		! 7 Tank height
0		! 8 Tank fluid
cp_hw		! 9 Fluid specific heat
rho_hw		! 10 Fluid density
k_hw		! 11 Fluid thermal conductivity
v_hw		! 12 Fluid viscosity
0.00026		! 13 Fluid thermal expansion coefficient
c_tankloss		! 14 Top loss coefficient
c_tankloss		! 15 Edge loss coefficient for node-1
c_tankloss		! 16 Edge loss coefficient for node-2
c_tankloss		! 17 Edge loss coefficient for node-3
c_tankloss		! 18 Bottom loss coefficient
0		! 19 Additional thermal conductivity
1		! 20 Inlet flow mode-1
3		! 21 Entry node-1
1		! 22 Exit node-1
1		! 23 Inlet flow mode-2
1		! 24 Entry node-2
3		! 25 Exit node-2
0		! 26 Flue loss coefficient for node-1
0		! 27 Flue loss coefficient for node-2
0		! 28 Flue loss coefficient for node-3
INPUTS 14
18,1 		! LoadHW:Outlet temperature ->Inlet temperature for port-1
18,2 		! LoadHW:Outlet flow rate ->Inlet flow rate for port-1
55,1 		! PumpHW:Outlet fluid temperature ->Inlet temperature for port-2
55,2 		! PumpHW:Outlet flow rate ->Inlet flow rate for port-2
0,0		! [unconnected] Top loss temperature
0,0		! [unconnected] Edge loss temperature for node-1
0,0		! [unconnected] Edge loss temperature for node-2
0,0		! [unconnected] Edge loss temperature for node-3
0,0		! [unconnected] Bottom loss temperature
0,0		! [unconnected] Gas flue temperature
0,0		! [unconnected] Inversion mixing flow rate
0,0		! [unconnected] Auxiliary heat input for node-1
0,0		! [unconnected] Auxiliary heat input for node-2
0,0		! [unconnected] Auxiliary heat input for node-3
*** INITIAL INPUT VALUES
10 0.0 10 0.0 20.0 20.0 20.0 20.0 20.0 20.0 -100 0.0 0.0 0.0 
DERIVATIVES 3
t_hwmax		! 1 Initial Tank Temperature-1
t_hwmax		! 2 Initial Tank Temperature-2
t_hwmax		! 3 Initial Tank Temperature-3
*------------------------------------------------------------------------------

* Model "PumpHWload" (Type 110)
* 

UNIT 24 TYPE 110	 PumpHWload
*$UNIT_NAME PumpHWload
*$MODEL .\Hydronics\Pumps\Variable Speed\Type110.tmf
*$POSITION 1300 151
*$LAYER Main # 
*$# VARIABLE-SPEED PUMP
PARAMETERS 8
m_hwmax		! 1 Rated flow rate
cp_hw		! 2 Fluid specific heat
p_hwmax		! 3 Rated power
0.0		! 4 Motor heat loss fraction
3		! 5 Number of power coefficients
0		! 6 Power coefficient-1
0.3		! 7 Power coefficient-2
0.7		! 8 Power coefficient-3
INPUTS 5
20,1 		! Tank_HW:Temperature at outlet-1 ->Inlet fluid temperature
20,2 		! Tank_HW:Flow rate at outlet-1 ->Inlet fluid flow rate
sig_phwload		! CalcHPctrl:sig_phwload ->Control signal
effloadpump		! [equation] Total pump efficiency
0,0		! [unconnected] Motor efficiency
*** INITIAL INPUT VALUES
t_hwmax 0.0 0 effloadpump 0.95 
*------------------------------------------------------------------------------

* Model "Boiler" (Type 6)
* 

UNIT 11 TYPE 6	 Boiler
*$UNIT_NAME Boiler
*$MODEL .\HVAC\Auxiliary Heaters\Type6.tmf
*$POSITION 1420 151
*$LAYER Water Loop # 
PARAMETERS 4
q_heatmax		! 1 Maximum heating rate
cp_hw		! 2 Specific heat of fluid
0.0		! 3 Overall loss coefficient for heater during operation
0.93		! 4 Efficiency of auxiliary heater
INPUTS 5
24,1 		! PumpHWload:Outlet fluid temperature ->Inlet fluid temperature
24,2 		! PumpHWload:Outlet flow rate ->Fluid mass flow rate
0,0		! [unconnected] Control Function
t_boilerset		! CalcTempCtrl:t_boilerset ->Set point temperature
0,0		! [unconnected] Temperature of surroundings
*** INITIAL INPUT VALUES
t_hwmax 0 1 t_boilerset 20.0 
*------------------------------------------------------------------------------

* Model "LoadHW" (Type 682)
* 

UNIT 18 TYPE 682	 LoadHW
*$UNIT_NAME LoadHW
*$MODEL .\Loads and Structures (TESS)\Flowstream Loads\Other Fluids\Type682.tmf
*$POSITION 1525 151
*$LAYER Main # 
PARAMETERS 1
cp_hw		! 1 Fluid specific heat
INPUTS 5
11,1 		! Boiler:Outlet fluid temperature ->Inlet temperature
11,2 		! Boiler:Outlet fluid flow rate ->Inlet flow rate
q_heat_neg		! CalcHPctrl:q_heat_neg ->Load
0,0		! [unconnected] Minimum Heating Temperature
0,0		! [unconnected] Maximum Cooling Temperature
*** INITIAL INPUT VALUES
t_hwmax 0 0.0 -999 999 
*------------------------------------------------------------------------------

* Model "Tank_CHW" (Type 534)
* 

UNIT 21 TYPE 534	 Tank_CHW
*$UNIT_NAME Tank_CHW
*$MODEL .\Storage Tank Library (TESS)\Cylindrical Storage Tank\Vertical Cylinder\Version without Plug-In\No HXs\Type534-NoHX.tmf
*$POSITION 1147 636
*$LAYER Main # 
*$# CYLINDRICAL STORAGE TANK
PARAMETERS 28
-1		! 1 LU for data file
3		! 2 Number of tank nodes
2		! 3 Number of ports
0		! 4 Number of immersed heat exchangers
0		! 5 Number of miscellaneous heat flows
vol_chw		! 6 Tank volume
high_chw		! 7 Tank height
0		! 8 Tank fluid
cp_chw		! 9 Fluid specific heat
rho_chw		! 10 Fluid density
k_chw		! 11 Fluid thermal conductivity
v_chw		! 12 Fluid viscosity
0.00026		! 13 Fluid thermal expansion coefficient
c_tankloss		! 14 Top loss coefficient
c_tankloss		! 15 Edge loss coefficient for node-1
c_tankloss		! 16 Edge loss coefficient for node-2
c_tankloss		! 17 Edge loss coefficient for node-3
c_tankloss		! 18 Bottom loss coefficient
0		! 19 Additional thermal conductivity
1		! 20 Inlet flow mode-1
1		! 21 Entry node-1
3		! 22 Exit node-1
1		! 23 Inlet flow mode-2
3		! 24 Entry node-2
1		! 25 Exit node-2
0		! 26 Flue loss coefficient for node-1
0		! 27 Flue loss coefficient for node-2
0		! 28 Flue loss coefficient for node-3
INPUTS 14
19,1 		! LoadCHW:Outlet temperature ->Inlet temperature for port-1
19,2 		! LoadCHW:Outlet flow rate ->Inlet flow rate for port-1
54,1 		! PumpCHW:Outlet fluid temperature ->Inlet temperature for port-2
54,2 		! PumpCHW:Outlet flow rate ->Inlet flow rate for port-2
0,0		! [unconnected] Top loss temperature
0,0		! [unconnected] Edge loss temperature for node-1
0,0		! [unconnected] Edge loss temperature for node-2
0,0		! [unconnected] Edge loss temperature for node-3
0,0		! [unconnected] Bottom loss temperature
0,0		! [unconnected] Gas flue temperature
0,0		! [unconnected] Inversion mixing flow rate
0,0		! [unconnected] Auxiliary heat input for node-1
0,0		! [unconnected] Auxiliary heat input for node-2
0,0		! [unconnected] Auxiliary heat input for node-3
*** INITIAL INPUT VALUES
10 0.0 10 0.0 20.0 20.0 20.0 20.0 20.0 20.0 -100 0.0 0.0 0.0 
DERIVATIVES 3
t_chwmax		! 1 Initial Tank Temperature-1
t_chwmax		! 2 Initial Tank Temperature-2
t_chwmax		! 3 Initial Tank Temperature-3
*------------------------------------------------------------------------------

* Model "PumpCHWload" (Type 110)
* 

UNIT 25 TYPE 110	 PumpCHWload
*$UNIT_NAME PumpCHWload
*$MODEL .\Hydronics\Pumps\Variable Speed\Type110.tmf
*$POSITION 1300 659
*$LAYER Main # 
*$# VARIABLE-SPEED PUMP
PARAMETERS 8
m_chwmax		! 1 Rated flow rate
cp_chw		! 2 Fluid specific heat
p_chwmax		! 3 Rated power
0.0		! 4 Motor heat loss fraction
3		! 5 Number of power coefficients
0		! 6 Power coefficient-1
0.3		! 7 Power coefficient-2
0.7		! 8 Power coefficient-3
INPUTS 5
21,1 		! Tank_CHW:Temperature at outlet-1 ->Inlet fluid temperature
21,2 		! Tank_CHW:Flow rate at outlet-1 ->Inlet fluid flow rate
sig_pchwload		! CalcHPctrl:sig_pchwload ->Control signal
effloadpump		! [equation] Total pump efficiency
0,0		! [unconnected] Motor efficiency
*** INITIAL INPUT VALUES
t_chwmax 0.0 0 effloadpump 0.95 
*------------------------------------------------------------------------------

* Model "Chiller" (Type 655)
* 

UNIT 58 TYPE 655	 Chiller
*$UNIT_NAME Chiller
*$MODEL .\HVAC Library (TESS)\Chillers\Air-Cooled Chiller\Type655.tmf
*$POSITION 1414 660
*$LAYER Main # 
*$# AIR-COOLED CHILLER
PARAMETERS 8
q_coolmax		! 1 Rated capacity
3.0		! 2 Rated C.O.P.
55		! 3 Logical unit for performance data
56		! 4 Logical unit for PLR data file
cp_chw		! 5 Fluid specific heat
5		! 6 Number of ambient temperatures
6		! 7 Number of CHW set points
5		! 8 Number of part load ratios
INPUTS 5
25,1 		! PumpCHWload:Outlet fluid temperature ->Chilled water inlet temperature
25,2 		! PumpCHWload:Outlet flow rate ->Chilled water flow rate
t_chillerset		! CalcTempCtrl:t_chillerset ->Set point temperature
87,4 		! HourlyLoads:Output 4 ->Ambient temperature
0,0		! [unconnected] Chiller control signal
*** INITIAL INPUT VALUES
t_chwmax 0 t_chillerset 30.0 1 
*** External files
ASSIGN "C:\Trnsys17\Tess Models\SampleCatalogData\AirCooledChiller\Samp_C.Dat" 55
*|? Which file contains the chiller performance data? |1000
ASSIGN "C:\Trnsys17\Tess Models\SampleCatalogData\AirCooledChiller\Samp_PLR.Dat" 56
*|? Which file contains the part-load performance data? |1000
*------------------------------------------------------------------------------

* Model "LoadCHW" (Type 682)
* 

UNIT 19 TYPE 682	 LoadCHW
*$UNIT_NAME LoadCHW
*$MODEL .\Loads and Structures (TESS)\Flowstream Loads\Other Fluids\Type682.tmf
*$POSITION 1530 659
*$LAYER Main # 
PARAMETERS 1
cp_chw		! 1 Fluid specific heat
INPUTS 5
58,1 		! Chiller:Outlet fluid temperature ->Inlet temperature
58,2 		! Chiller:Fluid flow rate ->Inlet flow rate
q_cool		! CalcHPctrl:q_cool ->Load
0,0		! [unconnected] Minimum Heating Temperature
0,0		! [unconnected] Maximum Cooling Temperature
*** INITIAL INPUT VALUES
t_chwmax 0 0.0 -999 999 
*------------------------------------------------------------------------------

* Model "vPumpS1" (Type 110)
* 

UNIT 13 TYPE 110	 vPumpS1